data_image0
_cell_length_a       31.9702
_cell_length_b       31.9702
_cell_length_c       31.9702
_cell_angle_alpha    90
_cell_angle_beta     90
_cell_angle_gamma    90

_symmetry_space_group_name_H-M    "P 1"
_symmetry_int_tables_number       1

loop_
  _symmetry_equiv_pos_as_xyz
  'x, y, z'

loop_
  _atom_site_label
  _atom_site_occupancy
  _atom_site_fract_x
  _atom_site_fract_y
  _atom_site_fract_z
  _atom_site_thermal_displace_type
  _atom_site_B_iso_or_equiv
  _atom_site_type_symbol
  Pt1      1.0000 0.31947  0.38014  0.50000  Biso   1.000  Pt
  Pt2      1.0000 0.38015  0.31946  0.50000  Biso   1.000  Pt
  Pt3      1.0000 0.37409  0.37409  0.43416  Biso   1.000  Pt
  Pt4      1.0000 0.37410  0.37410  0.56584  Biso   1.000  Pt
  Pt5      1.0000 0.31946  0.50000  0.38014  Biso   1.000  Pt
  Pt6      1.0000 0.37409  0.43416  0.37409  Biso   1.000  Pt
  Pt7      1.0000 0.38014  0.50000  0.31946  Biso   1.000  Pt
  Pt8      1.0000 0.31797  0.43910  0.43910  Biso   1.000  Pt
  Pt9      1.0000 0.31559  0.50000  0.50000  Biso   1.000  Pt
  Pt10     1.0000 0.37890  0.43860  0.50000  Biso   1.000  Pt
  Pt11     1.0000 0.37891  0.50000  0.43860  Biso   1.000  Pt
  Pt12     1.0000 0.31797  0.43910  0.56090  Biso   1.000  Pt
  Pt13     1.0000 0.31947  0.50000  0.61986  Biso   1.000  Pt
  Pt14     1.0000 0.37409  0.43416  0.62591  Biso   1.000  Pt
  Pt15     1.0000 0.37890  0.50000  0.56140  Biso   1.000  Pt
  Pt16     1.0000 0.38014  0.50000  0.68054  Biso   1.000  Pt
  Pt17     1.0000 0.37409  0.56584  0.37409  Biso   1.000  Pt
  Pt18     1.0000 0.31797  0.56090  0.43910  Biso   1.000  Pt
  Pt19     1.0000 0.31946  0.61985  0.50000  Biso   1.000  Pt
  Pt20     1.0000 0.37890  0.56140  0.50000  Biso   1.000  Pt
  Pt21     1.0000 0.37409  0.62591  0.43416  Biso   1.000  Pt
  Pt22     1.0000 0.31797  0.56090  0.56091  Biso   1.000  Pt
  Pt23     1.0000 0.37410  0.56584  0.62591  Biso   1.000  Pt
  Pt24     1.0000 0.37409  0.62591  0.56584  Biso   1.000  Pt
  Pt25     1.0000 0.38014  0.68054  0.50000  Biso   1.000  Pt
  Pt26     1.0000 0.43416  0.37409  0.37409  Biso   1.000  Pt
  Pt27     1.0000 0.50000  0.31947  0.38015  Biso   1.000  Pt
  Pt28     1.0000 0.50000  0.38014  0.31947  Biso   1.000  Pt
  Pt29     1.0000 0.43910  0.31797  0.43910  Biso   1.000  Pt
  Pt30     1.0000 0.43860  0.37890  0.50000  Biso   1.000  Pt
  Pt31     1.0000 0.50000  0.31559  0.50000  Biso   1.000  Pt
  Pt32     1.0000 0.50000  0.37890  0.43860  Biso   1.000  Pt
  Pt33     1.0000 0.43910  0.31797  0.56090  Biso   1.000  Pt
  Pt34     1.0000 0.43416  0.37410  0.62590  Biso   1.000  Pt
  Pt35     1.0000 0.50000  0.31947  0.61985  Biso   1.000  Pt
  Pt36     1.0000 0.50000  0.37891  0.56140  Biso   1.000  Pt
  Pt37     1.0000 0.50000  0.38014  0.68053  Biso   1.000  Pt
  Pt38     1.0000 0.43910  0.43910  0.31797  Biso   1.000  Pt
  Pt39     1.0000 0.43860  0.50000  0.37890  Biso   1.000  Pt
  Pt40     1.0000 0.50000  0.43860  0.37891  Biso   1.000  Pt
  Pt41     1.0000 0.50000  0.50000  0.31558  Biso   1.000  Pt
  Pt42     1.0000 0.43688  0.43690  0.43688  Biso   1.000  Pt
  Pt43     1.0000 0.43876  0.50000  0.50000  Biso   1.000  Pt
  Pt44     1.0000 0.50000  0.43876  0.50000  Biso   1.000  Pt
  Pt45     1.0000 0.50000  0.50000  0.43876  Biso   1.000  Pt
  Pt46     1.0000 0.43689  0.43689  0.56311  Biso   1.000  Pt
  Pt47     1.0000 0.43860  0.50000  0.62110  Biso   1.000  Pt
  Pt48     1.0000 0.50000  0.43860  0.62110  Biso   1.000  Pt
  Pt49     1.0000 0.50000  0.50000  0.56124  Biso   1.000  Pt
  Pt50     1.0000 0.43910  0.43909  0.68203  Biso   1.000  Pt
  Pt51     1.0000 0.50000  0.50000  0.68442  Biso   1.000  Pt
  Pt52     1.0000 0.43910  0.56090  0.31797  Biso   1.000  Pt
  Pt53     1.0000 0.43416  0.62591  0.37409  Biso   1.000  Pt
  Pt54     1.0000 0.50000  0.56140  0.37890  Biso   1.000  Pt
  Pt55     1.0000 0.50000  0.61985  0.31946  Biso   1.000  Pt
  Pt56     1.0000 0.43689  0.56311  0.43689  Biso   1.000  Pt
  Pt57     1.0000 0.43860  0.62110  0.50000  Biso   1.000  Pt
  Pt58     1.0000 0.50000  0.56124  0.50000  Biso   1.000  Pt
  Pt59     1.0000 0.50000  0.62110  0.43860  Biso   1.000  Pt
  Pt60     1.0000 0.43689  0.56311  0.56312  Biso   1.000  Pt
  Pt61     1.0000 0.43416  0.62591  0.62591  Biso   1.000  Pt
  Pt62     1.0000 0.50000  0.56140  0.62110  Biso   1.000  Pt
  Pt63     1.0000 0.50000  0.62110  0.56140  Biso   1.000  Pt
  Pt64     1.0000 0.43910  0.56090  0.68203  Biso   1.000  Pt
  Pt65     1.0000 0.50000  0.61985  0.68054  Biso   1.000  Pt
  Pt66     1.0000 0.50000  0.68054  0.38014  Biso   1.000  Pt
  Pt67     1.0000 0.43910  0.68203  0.43910  Biso   1.000  Pt
  Pt68     1.0000 0.50000  0.68442  0.50000  Biso   1.000  Pt
  Pt69     1.0000 0.43910  0.68203  0.56091  Biso   1.000  Pt
  Pt70     1.0000 0.50000  0.68054  0.61986  Biso   1.000  Pt
  Pt71     1.0000 0.56584  0.37410  0.37410  Biso   1.000  Pt
  Pt72     1.0000 0.56090  0.31797  0.43910  Biso   1.000  Pt
  Pt73     1.0000 0.56140  0.37891  0.50000  Biso   1.000  Pt
  Pt74     1.0000 0.61985  0.31947  0.50000  Biso   1.000  Pt
  Pt75     1.0000 0.62591  0.37410  0.43416  Biso   1.000  Pt
  Pt76     1.0000 0.56090  0.31797  0.56090  Biso   1.000  Pt
  Pt77     1.0000 0.56584  0.37410  0.62590  Biso   1.000  Pt
  Pt78     1.0000 0.62590  0.37410  0.56584  Biso   1.000  Pt
  Pt79     1.0000 0.56090  0.43910  0.31797  Biso   1.000  Pt
  Pt80     1.0000 0.56140  0.50000  0.37890  Biso   1.000  Pt
  Pt81     1.0000 0.62591  0.43416  0.37410  Biso   1.000  Pt
  Pt82     1.0000 0.61986  0.50000  0.31947  Biso   1.000  Pt
  Pt83     1.0000 0.56311  0.43689  0.43689  Biso   1.000  Pt
  Pt84     1.0000 0.56124  0.50000  0.50000  Biso   1.000  Pt
  Pt85     1.0000 0.62110  0.43860  0.50000  Biso   1.000  Pt
  Pt86     1.0000 0.62110  0.50000  0.43860  Biso   1.000  Pt
  Pt87     1.0000 0.56311  0.43689  0.56311  Biso   1.000  Pt
  Pt88     1.0000 0.56140  0.50000  0.62110  Biso   1.000  Pt
  Pt89     1.0000 0.62590  0.43416  0.62590  Biso   1.000  Pt
  Pt90     1.0000 0.62109  0.50000  0.56140  Biso   1.000  Pt
  Pt91     1.0000 0.56090  0.43910  0.68203  Biso   1.000  Pt
  Pt92     1.0000 0.61985  0.50000  0.68053  Biso   1.000  Pt
  Pt93     1.0000 0.56090  0.56090  0.31797  Biso   1.000  Pt
  Pt94     1.0000 0.56584  0.62591  0.37409  Biso   1.000  Pt
  Pt95     1.0000 0.62590  0.56584  0.37409  Biso   1.000  Pt
  Pt96     1.0000 0.56312  0.56311  0.43689  Biso   1.000  Pt
  Pt97     1.0000 0.56140  0.62110  0.50000  Biso   1.000  Pt
  Pt98     1.0000 0.62110  0.56140  0.50000  Biso   1.000  Pt
  Pt99     1.0000 0.62591  0.62591  0.43416  Biso   1.000  Pt
  Pt100    1.0000 0.56311  0.56311  0.56311  Biso   1.000  Pt
  Pt101    1.0000 0.56584  0.62591  0.62591  Biso   1.000  Pt
  Pt102    1.0000 0.62590  0.56584  0.62591  Biso   1.000  Pt
  Pt103    1.0000 0.62590  0.62591  0.56584  Biso   1.000  Pt
  Pt104    1.0000 0.56090  0.56090  0.68203  Biso   1.000  Pt
  Pt105    1.0000 0.56090  0.68203  0.43910  Biso   1.000  Pt
  Pt106    1.0000 0.61986  0.68054  0.50000  Biso   1.000  Pt
  Pt107    1.0000 0.56090  0.68203  0.56090  Biso   1.000  Pt
  Pt108    1.0000 0.68054  0.38014  0.50000  Biso   1.000  Pt
  Pt109    1.0000 0.68054  0.50000  0.38015  Biso   1.000  Pt
  Pt110    1.0000 0.68203  0.43910  0.43910  Biso   1.000  Pt
  Pt111    1.0000 0.68442  0.50000  0.50000  Biso   1.000  Pt
  Pt112    1.0000 0.68203  0.43910  0.56090  Biso   1.000  Pt
  Pt113    1.0000 0.68053  0.50000  0.61985  Biso   1.000  Pt
  Pt114    1.0000 0.68203  0.56091  0.43910  Biso   1.000  Pt
  Pt115    1.0000 0.68054  0.61985  0.50000  Biso   1.000  Pt
  Pt116    1.0000 0.68203  0.56090  0.56090  Biso   1.000  Pt
