data_image0
_cell_length_a       35.9603
_cell_length_b       35.9603
_cell_length_c       35.9603
_cell_angle_alpha    90
_cell_angle_beta     90
_cell_angle_gamma    90

_symmetry_space_group_name_H-M    "P 1"
_symmetry_int_tables_number       1

loop_
  _symmetry_equiv_pos_as_xyz
  'x, y, z'

loop_
  _atom_site_label
  _atom_site_occupancy
  _atom_site_fract_x
  _atom_site_fract_y
  _atom_site_fract_z
  _atom_site_thermal_displace_type
  _atom_site_B_iso_or_equiv
  _atom_site_type_symbol
  Pt1      1.0000 0.28841  0.44564  0.50000  Biso   1.000  Pt
  Pt2      1.0000 0.28841  0.50000  0.44564  Biso   1.000  Pt
  Pt3      1.0000 0.28841  0.50000  0.55436  Biso   1.000  Pt
  Pt4      1.0000 0.28841  0.55436  0.50000  Biso   1.000  Pt
  Pt5      1.0000 0.33958  0.39118  0.50000  Biso   1.000  Pt
  Pt6      1.0000 0.39118  0.33958  0.50000  Biso   1.000  Pt
  Pt7      1.0000 0.38761  0.38760  0.44050  Biso   1.000  Pt
  Pt8      1.0000 0.38760  0.38761  0.55949  Biso   1.000  Pt
  Pt9      1.0000 0.33958  0.50000  0.39118  Biso   1.000  Pt
  Pt10     1.0000 0.38760  0.44050  0.38760  Biso   1.000  Pt
  Pt11     1.0000 0.39118  0.50000  0.33958  Biso   1.000  Pt
  Pt12     1.0000 0.33634  0.44225  0.44225  Biso   1.000  Pt
  Pt13     1.0000 0.34030  0.50000  0.50000  Biso   1.000  Pt
  Pt14     1.0000 0.39154  0.44481  0.50000  Biso   1.000  Pt
  Pt15     1.0000 0.39154  0.50000  0.44481  Biso   1.000  Pt
  Pt16     1.0000 0.33634  0.44226  0.55774  Biso   1.000  Pt
  Pt17     1.0000 0.33958  0.50000  0.60882  Biso   1.000  Pt
  Pt18     1.0000 0.38760  0.44051  0.61240  Biso   1.000  Pt
  Pt19     1.0000 0.39154  0.50000  0.55519  Biso   1.000  Pt
  Pt20     1.0000 0.39118  0.50000  0.66042  Biso   1.000  Pt
  Pt21     1.0000 0.38760  0.55950  0.38760  Biso   1.000  Pt
  Pt22     1.0000 0.33634  0.55774  0.44225  Biso   1.000  Pt
  Pt23     1.0000 0.33958  0.60882  0.50000  Biso   1.000  Pt
  Pt24     1.0000 0.39154  0.55519  0.50000  Biso   1.000  Pt
  Pt25     1.0000 0.38761  0.61239  0.44050  Biso   1.000  Pt
  Pt26     1.0000 0.33634  0.55774  0.55774  Biso   1.000  Pt
  Pt27     1.0000 0.38760  0.55950  0.61240  Biso   1.000  Pt
  Pt28     1.0000 0.38761  0.61239  0.55950  Biso   1.000  Pt
  Pt29     1.0000 0.39118  0.66042  0.50000  Biso   1.000  Pt
  Pt30     1.0000 0.44564  0.28842  0.50000  Biso   1.000  Pt
  Pt31     1.0000 0.50000  0.28841  0.44564  Biso   1.000  Pt
  Pt32     1.0000 0.50000  0.28841  0.55436  Biso   1.000  Pt
  Pt33     1.0000 0.44050  0.38760  0.38760  Biso   1.000  Pt
  Pt34     1.0000 0.50000  0.33958  0.39118  Biso   1.000  Pt
  Pt35     1.0000 0.50000  0.39118  0.33958  Biso   1.000  Pt
  Pt36     1.0000 0.44226  0.33634  0.44225  Biso   1.000  Pt
  Pt37     1.0000 0.44481  0.39154  0.50000  Biso   1.000  Pt
  Pt38     1.0000 0.50000  0.34030  0.50000  Biso   1.000  Pt
  Pt39     1.0000 0.50000  0.39154  0.44481  Biso   1.000  Pt
  Pt40     1.0000 0.44225  0.33634  0.55774  Biso   1.000  Pt
  Pt41     1.0000 0.44050  0.38760  0.61240  Biso   1.000  Pt
  Pt42     1.0000 0.50000  0.33958  0.60882  Biso   1.000  Pt
  Pt43     1.0000 0.50000  0.39154  0.55519  Biso   1.000  Pt
  Pt44     1.0000 0.50000  0.39118  0.66042  Biso   1.000  Pt
  Pt45     1.0000 0.44565  0.50000  0.28842  Biso   1.000  Pt
  Pt46     1.0000 0.50000  0.44565  0.28842  Biso   1.000  Pt
  Pt47     1.0000 0.44226  0.44226  0.33634  Biso   1.000  Pt
  Pt48     1.0000 0.44480  0.50000  0.39154  Biso   1.000  Pt
  Pt49     1.0000 0.50000  0.44480  0.39154  Biso   1.000  Pt
  Pt50     1.0000 0.50000  0.50000  0.34031  Biso   1.000  Pt
  Pt51     1.0000 0.44401  0.44402  0.44402  Biso   1.000  Pt
  Pt52     1.0000 0.44508  0.50000  0.50000  Biso   1.000  Pt
  Pt53     1.0000 0.50000  0.44508  0.50000  Biso   1.000  Pt
  Pt54     1.0000 0.50000  0.50000  0.44508  Biso   1.000  Pt
  Pt55     1.0000 0.44401  0.44401  0.55599  Biso   1.000  Pt
  Pt56     1.0000 0.44480  0.50000  0.60846  Biso   1.000  Pt
  Pt57     1.0000 0.50000  0.44480  0.60846  Biso   1.000  Pt
  Pt58     1.0000 0.50000  0.50000  0.55491  Biso   1.000  Pt
  Pt59     1.0000 0.44225  0.44226  0.66366  Biso   1.000  Pt
  Pt60     1.0000 0.44565  0.50000  0.71158  Biso   1.000  Pt
  Pt61     1.0000 0.50000  0.44565  0.71158  Biso   1.000  Pt
  Pt62     1.0000 0.50000  0.50000  0.65969  Biso   1.000  Pt
  Pt63     1.0000 0.50000  0.55435  0.28842  Biso   1.000  Pt
  Pt64     1.0000 0.44226  0.55774  0.33634  Biso   1.000  Pt
  Pt65     1.0000 0.44050  0.61240  0.38760  Biso   1.000  Pt
  Pt66     1.0000 0.50000  0.55520  0.39154  Biso   1.000  Pt
  Pt67     1.0000 0.50000  0.60882  0.33958  Biso   1.000  Pt
  Pt68     1.0000 0.44401  0.55599  0.44401  Biso   1.000  Pt
  Pt69     1.0000 0.44481  0.60846  0.50000  Biso   1.000  Pt
  Pt70     1.0000 0.50000  0.55492  0.50000  Biso   1.000  Pt
  Pt71     1.0000 0.50000  0.60846  0.44481  Biso   1.000  Pt
  Pt72     1.0000 0.44401  0.55599  0.55598  Biso   1.000  Pt
  Pt73     1.0000 0.44050  0.61240  0.61240  Biso   1.000  Pt
  Pt74     1.0000 0.50000  0.55520  0.60846  Biso   1.000  Pt
  Pt75     1.0000 0.50000  0.60846  0.55519  Biso   1.000  Pt
  Pt76     1.0000 0.44226  0.55774  0.66366  Biso   1.000  Pt
  Pt77     1.0000 0.50000  0.55435  0.71158  Biso   1.000  Pt
  Pt78     1.0000 0.50000  0.60882  0.66042  Biso   1.000  Pt
  Pt79     1.0000 0.50000  0.66042  0.39118  Biso   1.000  Pt
  Pt80     1.0000 0.44226  0.66366  0.44226  Biso   1.000  Pt
  Pt81     1.0000 0.44565  0.71158  0.50000  Biso   1.000  Pt
  Pt82     1.0000 0.50000  0.65970  0.50000  Biso   1.000  Pt
  Pt83     1.0000 0.50000  0.71158  0.44565  Biso   1.000  Pt
  Pt84     1.0000 0.44226  0.66366  0.55774  Biso   1.000  Pt
  Pt85     1.0000 0.50000  0.66042  0.60882  Biso   1.000  Pt
  Pt86     1.0000 0.50000  0.71158  0.55435  Biso   1.000  Pt
  Pt87     1.0000 0.55436  0.28841  0.50000  Biso   1.000  Pt
  Pt88     1.0000 0.55950  0.38760  0.38760  Biso   1.000  Pt
  Pt89     1.0000 0.55775  0.33634  0.44225  Biso   1.000  Pt
  Pt90     1.0000 0.55519  0.39154  0.50000  Biso   1.000  Pt
  Pt91     1.0000 0.60882  0.33958  0.50000  Biso   1.000  Pt
  Pt92     1.0000 0.61240  0.38760  0.44050  Biso   1.000  Pt
  Pt93     1.0000 0.55774  0.33634  0.55775  Biso   1.000  Pt
  Pt94     1.0000 0.55949  0.38760  0.61240  Biso   1.000  Pt
  Pt95     1.0000 0.61240  0.38760  0.55950  Biso   1.000  Pt
  Pt96     1.0000 0.55435  0.50000  0.28842  Biso   1.000  Pt
  Pt97     1.0000 0.55774  0.44226  0.33634  Biso   1.000  Pt
  Pt98     1.0000 0.55520  0.50000  0.39154  Biso   1.000  Pt
  Pt99     1.0000 0.61240  0.44050  0.38760  Biso   1.000  Pt
  Pt100    1.0000 0.60882  0.50000  0.33958  Biso   1.000  Pt
  Pt101    1.0000 0.55599  0.44402  0.44402  Biso   1.000  Pt
  Pt102    1.0000 0.55492  0.50000  0.50000  Biso   1.000  Pt
  Pt103    1.0000 0.60846  0.44481  0.50000  Biso   1.000  Pt
  Pt104    1.0000 0.60846  0.50000  0.44480  Biso   1.000  Pt
  Pt105    1.0000 0.55599  0.44401  0.55599  Biso   1.000  Pt
  Pt106    1.0000 0.55520  0.50000  0.60846  Biso   1.000  Pt
  Pt107    1.0000 0.61240  0.44051  0.61240  Biso   1.000  Pt
  Pt108    1.0000 0.60846  0.50000  0.55519  Biso   1.000  Pt
  Pt109    1.0000 0.55774  0.44226  0.66366  Biso   1.000  Pt
  Pt110    1.0000 0.55435  0.50000  0.71158  Biso   1.000  Pt
  Pt111    1.0000 0.60882  0.50000  0.66042  Biso   1.000  Pt
  Pt112    1.0000 0.55775  0.55774  0.33634  Biso   1.000  Pt
  Pt113    1.0000 0.55950  0.61240  0.38760  Biso   1.000  Pt
  Pt114    1.0000 0.61240  0.55950  0.38761  Biso   1.000  Pt
  Pt115    1.0000 0.55599  0.55598  0.44402  Biso   1.000  Pt
  Pt116    1.0000 0.55519  0.60846  0.50000  Biso   1.000  Pt
  Pt117    1.0000 0.60846  0.55519  0.50000  Biso   1.000  Pt
  Pt118    1.0000 0.61239  0.61239  0.44050  Biso   1.000  Pt
  Pt119    1.0000 0.55600  0.55600  0.55599  Biso   1.000  Pt
  Pt120    1.0000 0.55949  0.61240  0.61240  Biso   1.000  Pt
  Pt121    1.0000 0.61240  0.55950  0.61240  Biso   1.000  Pt
  Pt122    1.0000 0.61240  0.61240  0.55950  Biso   1.000  Pt
  Pt123    1.0000 0.55774  0.55775  0.66366  Biso   1.000  Pt
  Pt124    1.0000 0.55775  0.66366  0.44226  Biso   1.000  Pt
  Pt125    1.0000 0.55435  0.71158  0.50000  Biso   1.000  Pt
  Pt126    1.0000 0.60882  0.66042  0.50000  Biso   1.000  Pt
  Pt127    1.0000 0.55774  0.66366  0.55774  Biso   1.000  Pt
  Pt128    1.0000 0.66042  0.39118  0.50000  Biso   1.000  Pt
  Pt129    1.0000 0.66042  0.50000  0.39118  Biso   1.000  Pt
  Pt130    1.0000 0.66366  0.44225  0.44226  Biso   1.000  Pt
  Pt131    1.0000 0.65971  0.50000  0.50000  Biso   1.000  Pt
  Pt132    1.0000 0.71158  0.44565  0.50000  Biso   1.000  Pt
  Pt133    1.0000 0.71158  0.50000  0.44565  Biso   1.000  Pt
  Pt134    1.0000 0.66366  0.44226  0.55775  Biso   1.000  Pt
  Pt135    1.0000 0.66042  0.50000  0.60882  Biso   1.000  Pt
  Pt136    1.0000 0.71158  0.50000  0.55435  Biso   1.000  Pt
  Pt137    1.0000 0.66366  0.55774  0.44226  Biso   1.000  Pt
  Pt138    1.0000 0.66042  0.60882  0.50000  Biso   1.000  Pt
  Pt139    1.0000 0.71158  0.55436  0.50000  Biso   1.000  Pt
  Pt140    1.0000 0.66366  0.55775  0.55775  Biso   1.000  Pt
