data_image0
_cell_length_a       27.84
_cell_length_b       27.84
_cell_length_c       27.84
_cell_angle_alpha    90
_cell_angle_beta     90
_cell_angle_gamma    90

_symmetry_space_group_name_H-M    "P 1"
_symmetry_int_tables_number       1

loop_
  _symmetry_equiv_pos_as_xyz
  'x, y, z'

loop_
  _atom_site_label
  _atom_site_occupancy
  _atom_site_fract_x
  _atom_site_fract_y
  _atom_site_fract_z
  _atom_site_thermal_displace_type
  _atom_site_B_iso_or_equiv
  _atom_site_type_symbol
  Pt1      1.0000 0.42933  0.42933  0.50000  Biso   1.000  Pt
  Pt2      1.0000 0.42933  0.50000  0.42933  Biso   1.000  Pt
  Pt3      1.0000 0.36706  0.50000  0.50000  Biso   1.000  Pt
  Pt4      1.0000 0.42933  0.50000  0.57067  Biso   1.000  Pt
  Pt5      1.0000 0.42933  0.57067  0.50000  Biso   1.000  Pt
  Pt6      1.0000 0.50000  0.42933  0.42933  Biso   1.000  Pt
  Pt7      1.0000 0.50000  0.36706  0.50000  Biso   1.000  Pt
  Pt8      1.0000 0.50000  0.42933  0.57067  Biso   1.000  Pt
  Pt9      1.0000 0.57067  0.42933  0.50000  Biso   1.000  Pt
  Pt10     1.0000 0.50000  0.50000  0.36706  Biso   1.000  Pt
  Pt11     1.0000 0.50000  0.57067  0.42933  Biso   1.000  Pt
  Pt12     1.0000 0.57067  0.50000  0.42933  Biso   1.000  Pt
  Pt13     1.0000 0.50000  0.50000  0.50000  Biso   1.000  Pt
  Pt14     1.0000 0.50000  0.57067  0.57067  Biso   1.000  Pt
  Pt15     1.0000 0.57067  0.50000  0.57067  Biso   1.000  Pt
  Pt16     1.0000 0.57067  0.57067  0.50000  Biso   1.000  Pt
  Pt17     1.0000 0.50000  0.50000  0.63294  Biso   1.000  Pt
  Pt18     1.0000 0.50000  0.63294  0.50000  Biso   1.000  Pt
  Pt19     1.0000 0.63294  0.50000  0.50000  Biso   1.000  Pt
