data_image0
_cell_length_a       31.76
_cell_length_b       31.76
_cell_length_c       31.76
_cell_angle_alpha    90
_cell_angle_beta     90
_cell_angle_gamma    90

_symmetry_space_group_name_H-M    "P 1"
_symmetry_int_tables_number       1

loop_
  _symmetry_equiv_pos_as_xyz
  'x, y, z'

loop_
  _atom_site_label
  _atom_site_occupancy
  _atom_site_fract_x
  _atom_site_fract_y
  _atom_site_fract_z
  _atom_site_thermal_displace_type
  _atom_site_B_iso_or_equiv
  _atom_site_type_symbol
  Pt1      1.0000 0.32482  0.50000  0.50000  Biso   1.000  Pt
  Pt2      1.0000 0.38089  0.43833  0.50000  Biso   1.000  Pt
  Pt3      1.0000 0.38089  0.50000  0.43833  Biso   1.000  Pt
  Pt4      1.0000 0.38089  0.50000  0.56167  Biso   1.000  Pt
  Pt5      1.0000 0.38089  0.56167  0.50000  Biso   1.000  Pt
  Pt6      1.0000 0.43833  0.38089  0.50000  Biso   1.000  Pt
  Pt7      1.0000 0.50000  0.32482  0.50000  Biso   1.000  Pt
  Pt8      1.0000 0.50000  0.38089  0.43833  Biso   1.000  Pt
  Pt9      1.0000 0.50000  0.38089  0.56167  Biso   1.000  Pt
  Pt10     1.0000 0.43833  0.50000  0.38089  Biso   1.000  Pt
  Pt11     1.0000 0.50000  0.43833  0.38089  Biso   1.000  Pt
  Pt12     1.0000 0.50000  0.50000  0.32482  Biso   1.000  Pt
  Pt13     1.0000 0.43197  0.43197  0.43197  Biso   1.000  Pt
  Pt14     1.0000 0.44038  0.50000  0.50000  Biso   1.000  Pt
  Pt15     1.0000 0.50000  0.44038  0.50000  Biso   1.000  Pt
  Pt16     1.0000 0.50000  0.50000  0.44038  Biso   1.000  Pt
  Pt17     1.0000 0.43197  0.43197  0.56803  Biso   1.000  Pt
  Pt18     1.0000 0.43833  0.50000  0.61911  Biso   1.000  Pt
  Pt19     1.0000 0.50000  0.43833  0.61911  Biso   1.000  Pt
  Pt20     1.0000 0.50000  0.50000  0.55962  Biso   1.000  Pt
  Pt21     1.0000 0.50000  0.50000  0.67518  Biso   1.000  Pt
  Pt22     1.0000 0.50000  0.56167  0.38089  Biso   1.000  Pt
  Pt23     1.0000 0.43197  0.56803  0.43197  Biso   1.000  Pt
  Pt24     1.0000 0.43833  0.61911  0.50000  Biso   1.000  Pt
  Pt25     1.0000 0.50000  0.55962  0.50000  Biso   1.000  Pt
  Pt26     1.0000 0.50000  0.61911  0.43833  Biso   1.000  Pt
  Pt27     1.0000 0.43197  0.56803  0.56803  Biso   1.000  Pt
  Pt28     1.0000 0.50000  0.56167  0.61911  Biso   1.000  Pt
  Pt29     1.0000 0.50000  0.61911  0.56167  Biso   1.000  Pt
  Pt30     1.0000 0.50000  0.67518  0.50000  Biso   1.000  Pt
  Pt31     1.0000 0.56167  0.38089  0.50000  Biso   1.000  Pt
  Pt32     1.0000 0.56167  0.50000  0.38089  Biso   1.000  Pt
  Pt33     1.0000 0.56803  0.43197  0.43197  Biso   1.000  Pt
  Pt34     1.0000 0.55962  0.50000  0.50000  Biso   1.000  Pt
  Pt35     1.0000 0.61911  0.43833  0.50000  Biso   1.000  Pt
  Pt36     1.0000 0.61911  0.50000  0.43833  Biso   1.000  Pt
  Pt37     1.0000 0.56803  0.43197  0.56803  Biso   1.000  Pt
  Pt38     1.0000 0.56167  0.50000  0.61911  Biso   1.000  Pt
  Pt39     1.0000 0.61911  0.50000  0.56167  Biso   1.000  Pt
  Pt40     1.0000 0.56803  0.56803  0.43197  Biso   1.000  Pt
  Pt41     1.0000 0.56167  0.61911  0.50000  Biso   1.000  Pt
  Pt42     1.0000 0.61911  0.56167  0.50000  Biso   1.000  Pt
  Pt43     1.0000 0.56803  0.56803  0.56803  Biso   1.000  Pt
  Pt44     1.0000 0.67518  0.50000  0.50000  Biso   1.000  Pt
