data_image0
_cell_length_a       29.4315
_cell_length_b       29.4315
_cell_length_c       29.4315
_cell_angle_alpha    90
_cell_angle_beta     90
_cell_angle_gamma    90

_symmetry_space_group_name_H-M    "P 1"
_symmetry_int_tables_number       1

loop_
  _symmetry_equiv_pos_as_xyz
  'x, y, z'

loop_
  _atom_site_label
  _atom_site_occupancy
  _atom_site_fract_x
  _atom_site_fract_y
  _atom_site_fract_z
  _atom_site_thermal_displace_type
  _atom_site_B_iso_or_equiv
  _atom_site_type_symbol
  Pt1      1.0000 0.50000  0.50000  0.50000  Biso   1.000  Pt
  Pt2      1.0000 0.57613  0.50000  0.45297  Biso   1.000  Pt
  Pt3      1.0000 0.57613  0.50000  0.54703  Biso   1.000  Pt
  Pt4      1.0000 0.42387  0.50000  0.45297  Biso   1.000  Pt
  Pt5      1.0000 0.42387  0.50000  0.54703  Biso   1.000  Pt
  Pt6      1.0000 0.45297  0.57613  0.50000  Biso   1.000  Pt
  Pt7      1.0000 0.54703  0.57613  0.50000  Biso   1.000  Pt
  Pt8      1.0000 0.45297  0.42387  0.50000  Biso   1.000  Pt
  Pt9      1.0000 0.54703  0.42387  0.50000  Biso   1.000  Pt
  Pt10     1.0000 0.50000  0.45297  0.57613  Biso   1.000  Pt
  Pt11     1.0000 0.50000  0.54703  0.57613  Biso   1.000  Pt
  Pt12     1.0000 0.50000  0.45297  0.42387  Biso   1.000  Pt
  Pt13     1.0000 0.50000  0.54703  0.42387  Biso   1.000  Pt
  Pt14     1.0000 0.65007  0.50000  0.40725  Biso   1.000  Pt
  Pt15     1.0000 0.65765  0.50000  0.50000  Biso   1.000  Pt
  Pt16     1.0000 0.65007  0.50000  0.59275  Biso   1.000  Pt
  Pt17     1.0000 0.34993  0.50000  0.40725  Biso   1.000  Pt
  Pt18     1.0000 0.34235  0.50000  0.50000  Biso   1.000  Pt
  Pt19     1.0000 0.34993  0.50000  0.59275  Biso   1.000  Pt
  Pt20     1.0000 0.40725  0.65007  0.50000  Biso   1.000  Pt
  Pt21     1.0000 0.50000  0.65765  0.50000  Biso   1.000  Pt
  Pt22     1.0000 0.59275  0.65007  0.50000  Biso   1.000  Pt
  Pt23     1.0000 0.40725  0.34993  0.50000  Biso   1.000  Pt
  Pt24     1.0000 0.50000  0.34235  0.50000  Biso   1.000  Pt
  Pt25     1.0000 0.59275  0.34993  0.50000  Biso   1.000  Pt
  Pt26     1.0000 0.50000  0.40725  0.65007  Biso   1.000  Pt
  Pt27     1.0000 0.50000  0.50000  0.65765  Biso   1.000  Pt
  Pt28     1.0000 0.50000  0.59275  0.65007  Biso   1.000  Pt
  Pt29     1.0000 0.50000  0.40725  0.34993  Biso   1.000  Pt
  Pt30     1.0000 0.50000  0.50000  0.34235  Biso   1.000  Pt
  Pt31     1.0000 0.50000  0.59275  0.34993  Biso   1.000  Pt
  Pt32     1.0000 0.57880  0.45131  0.62753  Biso   1.000  Pt
  Pt33     1.0000 0.57880  0.54869  0.62753  Biso   1.000  Pt
  Pt34     1.0000 0.57880  0.45131  0.37247  Biso   1.000  Pt
  Pt35     1.0000 0.57880  0.54869  0.37247  Biso   1.000  Pt
  Pt36     1.0000 0.42120  0.45131  0.62753  Biso   1.000  Pt
  Pt37     1.0000 0.42120  0.54869  0.62753  Biso   1.000  Pt
  Pt38     1.0000 0.42120  0.45131  0.37247  Biso   1.000  Pt
  Pt39     1.0000 0.42120  0.54869  0.37247  Biso   1.000  Pt
  Pt40     1.0000 0.62753  0.57880  0.45131  Biso   1.000  Pt
  Pt41     1.0000 0.62753  0.57880  0.54869  Biso   1.000  Pt
  Pt42     1.0000 0.37247  0.57880  0.45131  Biso   1.000  Pt
  Pt43     1.0000 0.37247  0.57880  0.54869  Biso   1.000  Pt
  Pt44     1.0000 0.62753  0.42120  0.45131  Biso   1.000  Pt
  Pt45     1.0000 0.62753  0.42120  0.54869  Biso   1.000  Pt
  Pt46     1.0000 0.37247  0.42120  0.45131  Biso   1.000  Pt
  Pt47     1.0000 0.37247  0.42120  0.54869  Biso   1.000  Pt
  Pt48     1.0000 0.45131  0.62753  0.57880  Biso   1.000  Pt
  Pt49     1.0000 0.54869  0.62753  0.57880  Biso   1.000  Pt
  Pt50     1.0000 0.45131  0.37247  0.57880  Biso   1.000  Pt
  Pt51     1.0000 0.54869  0.37247  0.57880  Biso   1.000  Pt
  Pt52     1.0000 0.45131  0.62753  0.42120  Biso   1.000  Pt
  Pt53     1.0000 0.54869  0.62753  0.42120  Biso   1.000  Pt
  Pt54     1.0000 0.45131  0.37247  0.42120  Biso   1.000  Pt
  Pt55     1.0000 0.54869  0.37247  0.42120  Biso   1.000  Pt
