data_image0
_cell_length_a       31.76
_cell_length_b       31.76
_cell_length_c       31.76
_cell_angle_alpha    90
_cell_angle_beta     90
_cell_angle_gamma    90

_symmetry_space_group_name_H-M    "P 1"
_symmetry_int_tables_number       1

loop_
  _symmetry_equiv_pos_as_xyz
  'x, y, z'

loop_
  _atom_site_label
  _atom_site_occupancy
  _atom_site_fract_x
  _atom_site_fract_y
  _atom_site_fract_z
  _atom_site_thermal_displace_type
  _atom_site_B_iso_or_equiv
  _atom_site_type_symbol
  Pt1      1.0000 0.32066  0.43897  0.50000  Biso   1.000  Pt
  Pt2      1.0000 0.32066  0.50000  0.43897  Biso   1.000  Pt
  Pt3      1.0000 0.32066  0.50000  0.56103  Biso   1.000  Pt
  Pt4      1.0000 0.32066  0.56103  0.50000  Biso   1.000  Pt
  Pt5      1.0000 0.43897  0.32066  0.50000  Biso   1.000  Pt
  Pt6      1.0000 0.37447  0.43407  0.43407  Biso   1.000  Pt
  Pt7      1.0000 0.43407  0.37447  0.43407  Biso   1.000  Pt
  Pt8      1.0000 0.43407  0.43407  0.37447  Biso   1.000  Pt
  Pt9      1.0000 0.37776  0.37776  0.50000  Biso   1.000  Pt
  Pt10     1.0000 0.37447  0.43407  0.56593  Biso   1.000  Pt
  Pt11     1.0000 0.43407  0.37447  0.56593  Biso   1.000  Pt
  Pt12     1.0000 0.43786  0.43786  0.50000  Biso   1.000  Pt
  Pt13     1.0000 0.43407  0.43407  0.62553  Biso   1.000  Pt
  Pt14     1.0000 0.43897  0.50000  0.32066  Biso   1.000  Pt
  Pt15     1.0000 0.37776  0.50000  0.37776  Biso   1.000  Pt
  Pt16     1.0000 0.37447  0.56593  0.43407  Biso   1.000  Pt
  Pt17     1.0000 0.43786  0.50000  0.43786  Biso   1.000  Pt
  Pt18     1.0000 0.43407  0.56593  0.37447  Biso   1.000  Pt
  Pt19     1.0000 0.38035  0.50000  0.50000  Biso   1.000  Pt
  Pt20     1.0000 0.37447  0.56593  0.56593  Biso   1.000  Pt
  Pt21     1.0000 0.43786  0.50000  0.56214  Biso   1.000  Pt
  Pt22     1.0000 0.43786  0.56214  0.50000  Biso   1.000  Pt
  Pt23     1.0000 0.37776  0.50000  0.62224  Biso   1.000  Pt
  Pt24     1.0000 0.43897  0.50000  0.67934  Biso   1.000  Pt
  Pt25     1.0000 0.43407  0.56593  0.62553  Biso   1.000  Pt
  Pt26     1.0000 0.43407  0.62553  0.43407  Biso   1.000  Pt
  Pt27     1.0000 0.37776  0.62224  0.50000  Biso   1.000  Pt
  Pt28     1.0000 0.43407  0.62553  0.56593  Biso   1.000  Pt
  Pt29     1.0000 0.43897  0.67934  0.50000  Biso   1.000  Pt
  Pt30     1.0000 0.50000  0.32066  0.43897  Biso   1.000  Pt
  Pt31     1.0000 0.50000  0.32066  0.56103  Biso   1.000  Pt
  Pt32     1.0000 0.56103  0.32066  0.50000  Biso   1.000  Pt
  Pt33     1.0000 0.50000  0.43897  0.32066  Biso   1.000  Pt
  Pt34     1.0000 0.50000  0.37776  0.37776  Biso   1.000  Pt
  Pt35     1.0000 0.50000  0.43786  0.43786  Biso   1.000  Pt
  Pt36     1.0000 0.56593  0.37447  0.43407  Biso   1.000  Pt
  Pt37     1.0000 0.56593  0.43407  0.37447  Biso   1.000  Pt
  Pt38     1.0000 0.50000  0.38035  0.50000  Biso   1.000  Pt
  Pt39     1.0000 0.50000  0.43786  0.56214  Biso   1.000  Pt
  Pt40     1.0000 0.56593  0.37447  0.56593  Biso   1.000  Pt
  Pt41     1.0000 0.56214  0.43786  0.50000  Biso   1.000  Pt
  Pt42     1.0000 0.50000  0.37776  0.62224  Biso   1.000  Pt
  Pt43     1.0000 0.50000  0.43897  0.67934  Biso   1.000  Pt
  Pt44     1.0000 0.56593  0.43407  0.62553  Biso   1.000  Pt
  Pt45     1.0000 0.50000  0.56103  0.32066  Biso   1.000  Pt
  Pt46     1.0000 0.56103  0.50000  0.32066  Biso   1.000  Pt
  Pt47     1.0000 0.50000  0.50000  0.38035  Biso   1.000  Pt
  Pt48     1.0000 0.50000  0.56214  0.43786  Biso   1.000  Pt
  Pt49     1.0000 0.56214  0.50000  0.43786  Biso   1.000  Pt
  Pt50     1.0000 0.56593  0.56593  0.37447  Biso   1.000  Pt
  Pt51     1.0000 0.50000  0.50000  0.50000  Biso   1.000  Pt
  Pt52     1.0000 0.50000  0.56214  0.56214  Biso   1.000  Pt
  Pt53     1.0000 0.56214  0.50000  0.56214  Biso   1.000  Pt
  Pt54     1.0000 0.56214  0.56214  0.50000  Biso   1.000  Pt
  Pt55     1.0000 0.50000  0.50000  0.61965  Biso   1.000  Pt
  Pt56     1.0000 0.50000  0.56103  0.67934  Biso   1.000  Pt
  Pt57     1.0000 0.56103  0.50000  0.67934  Biso   1.000  Pt
  Pt58     1.0000 0.56593  0.56593  0.62553  Biso   1.000  Pt
  Pt59     1.0000 0.50000  0.62224  0.37776  Biso   1.000  Pt
  Pt60     1.0000 0.50000  0.67934  0.43897  Biso   1.000  Pt
  Pt61     1.0000 0.56593  0.62553  0.43407  Biso   1.000  Pt
  Pt62     1.0000 0.50000  0.61965  0.50000  Biso   1.000  Pt
  Pt63     1.0000 0.50000  0.67934  0.56103  Biso   1.000  Pt
  Pt64     1.0000 0.56593  0.62553  0.56593  Biso   1.000  Pt
  Pt65     1.0000 0.56103  0.67934  0.50000  Biso   1.000  Pt
  Pt66     1.0000 0.50000  0.62224  0.62224  Biso   1.000  Pt
  Pt67     1.0000 0.62553  0.43407  0.43407  Biso   1.000  Pt
  Pt68     1.0000 0.62224  0.37776  0.50000  Biso   1.000  Pt
  Pt69     1.0000 0.62553  0.43407  0.56593  Biso   1.000  Pt
  Pt70     1.0000 0.67934  0.43897  0.50000  Biso   1.000  Pt
  Pt71     1.0000 0.62224  0.50000  0.37776  Biso   1.000  Pt
  Pt72     1.0000 0.62553  0.56593  0.43407  Biso   1.000  Pt
  Pt73     1.0000 0.67934  0.50000  0.43897  Biso   1.000  Pt
  Pt74     1.0000 0.61965  0.50000  0.50000  Biso   1.000  Pt
  Pt75     1.0000 0.62553  0.56593  0.56593  Biso   1.000  Pt
  Pt76     1.0000 0.67934  0.50000  0.56103  Biso   1.000  Pt
  Pt77     1.0000 0.67934  0.56103  0.50000  Biso   1.000  Pt
  Pt78     1.0000 0.62224  0.50000  0.62224  Biso   1.000  Pt
  Pt79     1.0000 0.62224  0.62224  0.50000  Biso   1.000  Pt
