data_image0
_cell_length_a       35.68
_cell_length_b       35.68
_cell_length_c       35.68
_cell_angle_alpha    90
_cell_angle_beta     90
_cell_angle_gamma    90

_symmetry_space_group_name_H-M    "P 1"
_symmetry_int_tables_number       1

loop_
  _symmetry_equiv_pos_as_xyz
  'x, y, z'

loop_
  _atom_site_label
  _atom_site_occupancy
  _atom_site_fract_x
  _atom_site_fract_y
  _atom_site_fract_z
  _atom_site_thermal_displace_type
  _atom_site_B_iso_or_equiv
  _atom_site_type_symbol
  Pt1      1.0000 0.31437  0.44300  0.46750  Biso   1.000  Pt
  Pt2      1.0000 0.36582  0.48450  0.48619  Biso   1.000  Pt
  Pt3      1.0000 0.36902  0.44801  0.41076  Biso   1.000  Pt
  Pt4      1.0000 0.37769  0.40501  0.46802  Biso   1.000  Pt
  Pt5      1.0000 0.42656  0.40120  0.41406  Biso   1.000  Pt
  Pt6      1.0000 0.42719  0.46150  0.45468  Biso   1.000  Pt
  Pt7      1.0000 0.43651  0.46717  0.38421  Biso   1.000  Pt
  Pt8      1.0000 0.45674  0.39540  0.47922  Biso   1.000  Pt
  Pt9      1.0000 0.49029  0.43594  0.42775  Biso   1.000  Pt
  Pt10     1.0000 0.40761  0.37202  0.52714  Biso   1.000  Pt
  Pt11     1.0000 0.31081  0.47482  0.53674  Biso   1.000  Pt
  Pt12     1.0000 0.34783  0.41607  0.53266  Biso   1.000  Pt
  Pt13     1.0000 0.37452  0.48007  0.57056  Biso   1.000  Pt
  Pt14     1.0000 0.40325  0.41410  0.58555  Biso   1.000  Pt
  Pt15     1.0000 0.48033  0.47250  0.50263  Biso   1.000  Pt
  Pt16     1.0000 0.41561  0.44538  0.52247  Biso   1.000  Pt
  Pt17     1.0000 0.46991  0.40342  0.55089  Biso   1.000  Pt
  Pt18     1.0000 0.44802  0.47166  0.58232  Biso   1.000  Pt
  Pt19     1.0000 0.30107  0.51949  0.48565  Biso   1.000  Pt
  Pt20     1.0000 0.36273  0.55734  0.46709  Biso   1.000  Pt
  Pt21     1.0000 0.33016  0.50467  0.42493  Biso   1.000  Pt
  Pt22     1.0000 0.40038  0.52057  0.41901  Biso   1.000  Pt
  Pt23     1.0000 0.43709  0.57098  0.46073  Biso   1.000  Pt
  Pt24     1.0000 0.47271  0.51334  0.43068  Biso   1.000  Pt
  Pt25     1.0000 0.35048  0.53763  0.53678  Biso   1.000  Pt
  Pt26     1.0000 0.41832  0.53951  0.57371  Biso   1.000  Pt
  Pt27     1.0000 0.46386  0.57953  0.53077  Biso   1.000  Pt
  Pt28     1.0000 0.42652  0.51843  0.50643  Biso   1.000  Pt
  Pt29     1.0000 0.39621  0.58814  0.52137  Biso   1.000  Pt
  Pt30     1.0000 0.49198  0.52133  0.55721  Biso   1.000  Pt
  Pt31     1.0000 0.53431  0.48253  0.45289  Biso   1.000  Pt
  Pt32     1.0000 0.52471  0.42173  0.49710  Biso   1.000  Pt
  Pt33     1.0000 0.51594  0.45216  0.56479  Biso   1.000  Pt
  Pt34     1.0000 0.55046  0.49279  0.52010  Biso   1.000  Pt
  Pt35     1.0000 0.50495  0.54186  0.48708  Biso   1.000  Pt
