data_image0
_cell_length_a       35.68
_cell_length_b       35.68
_cell_length_c       35.68
_cell_angle_alpha    90
_cell_angle_beta     90
_cell_angle_gamma    90

_symmetry_space_group_name_H-M    "P 1"
_symmetry_int_tables_number       1

loop_
  _symmetry_equiv_pos_as_xyz
  'x, y, z'

loop_
  _atom_site_label
  _atom_site_occupancy
  _atom_site_fract_x
  _atom_site_fract_y
  _atom_site_fract_z
  _atom_site_thermal_displace_type
  _atom_site_B_iso_or_equiv
  _atom_site_type_symbol
  Pt1      1.0000 0.36861  0.37868  0.44640  Biso   1.000  Pt
  Pt2      1.0000 0.31392  0.42244  0.47077  Biso   1.000  Pt
  Pt3      1.0000 0.34119  0.48240  0.44259  Biso   1.000  Pt
  Pt4      1.0000 0.43804  0.40222  0.44973  Biso   1.000  Pt
  Pt5      1.0000 0.38321  0.43769  0.40726  Biso   1.000  Pt
  Pt6      1.0000 0.48701  0.38241  0.49721  Biso   1.000  Pt
  Pt7      1.0000 0.43112  0.48706  0.37209  Biso   1.000  Pt
  Pt8      1.0000 0.43267  0.47416  0.44476  Biso   1.000  Pt
  Pt9      1.0000 0.45040  0.42163  0.38453  Biso   1.000  Pt
  Pt10     1.0000 0.37910  0.43505  0.49150  Biso   1.000  Pt
  Pt11     1.0000 0.49802  0.47311  0.40142  Biso   1.000  Pt
  Pt12     1.0000 0.49626  0.45576  0.47469  Biso   1.000  Pt
  Pt13     1.0000 0.34538  0.36982  0.51310  Biso   1.000  Pt
  Pt14     1.0000 0.41657  0.36598  0.50702  Biso   1.000  Pt
  Pt15     1.0000 0.32184  0.48864  0.50989  Biso   1.000  Pt
  Pt16     1.0000 0.32192  0.42730  0.54524  Biso   1.000  Pt
  Pt17     1.0000 0.37457  0.47114  0.56343  Biso   1.000  Pt
  Pt18     1.0000 0.45867  0.38589  0.56364  Biso   1.000  Pt
  Pt19     1.0000 0.44623  0.45287  0.59028  Biso   1.000  Pt
  Pt20     1.0000 0.39010  0.40245  0.56295  Biso   1.000  Pt
  Pt21     1.0000 0.44231  0.44789  0.52063  Biso   1.000  Pt
  Pt22     1.0000 0.49875  0.49853  0.55698  Biso   1.000  Pt
  Pt23     1.0000 0.34889  0.55137  0.47431  Biso   1.000  Pt
  Pt24     1.0000 0.38790  0.52344  0.41451  Biso   1.000  Pt
  Pt25     1.0000 0.41647  0.57213  0.45503  Biso   1.000  Pt
  Pt26     1.0000 0.48502  0.58357  0.47438  Biso   1.000  Pt
  Pt27     1.0000 0.46421  0.53539  0.41849  Biso   1.000  Pt
  Pt28     1.0000 0.46594  0.51914  0.49465  Biso   1.000  Pt
  Pt29     1.0000 0.39480  0.50540  0.49728  Biso   1.000  Pt
  Pt30     1.0000 0.35561  0.53921  0.54885  Biso   1.000  Pt
  Pt31     1.0000 0.42831  0.51893  0.56583  Biso   1.000  Pt
  Pt32     1.0000 0.47602  0.56976  0.54730  Biso   1.000  Pt
  Pt33     1.0000 0.41134  0.57561  0.52304  Biso   1.000  Pt
  Pt34     1.0000 0.50973  0.40347  0.42704  Biso   1.000  Pt
  Pt35     1.0000 0.55916  0.45936  0.43867  Biso   1.000  Pt
  Pt36     1.0000 0.55244  0.41070  0.48939  Biso   1.000  Pt
  Pt37     1.0000 0.55497  0.48110  0.51015  Biso   1.000  Pt
  Pt38     1.0000 0.51210  0.43018  0.54673  Biso   1.000  Pt
  Pt39     1.0000 0.52820  0.52281  0.44963  Biso   1.000  Pt
  Pt40     1.0000 0.53473  0.54822  0.51442  Biso   1.000  Pt
